Material: torchgdm / materials / TiO2_Devore1965
Optical constants. J. R. Devore. Refractive indices of rutile and sphalerite. J. Opt. Soc. Am. 41, 416-419 (1951)
Comments: average of ordinary (n_o) and extraordinary ray (n_e): n = (2*n_o + n_e) / 3; Room temperature.
Specs: {"temperature": "295 K"}
wavelength (um)	n	k
0.43000	2.99455	0.00000
0.44111	2.95645	0.00000
0.45222	2.92324	0.00000
0.46333	2.89403	0.00000
0.47444	2.86818	0.00000
0.48556	2.84514	0.00000
0.49667	2.82450	0.00000
0.50778	2.80591	0.00000
0.51889	2.78909	0.00000
0.53000	2.77381	0.00000
0.54111	2.75987	0.00000
0.55222	2.74712	0.00000
0.56333	2.73541	0.00000
0.57444	2.72463	0.00000
0.58556	2.71468	0.00000
0.59667	2.70546	0.00000
0.60778	2.69691	0.00000
0.61889	2.68896	0.00000
0.63000	2.68155	0.00000
0.64111	2.67463	0.00000
0.65222	2.66816	0.00000
0.66333	2.66210	0.00000
0.67444	2.65641	0.00000
0.68556	2.65106	0.00000
0.69667	2.64602	0.00000
0.70778	2.64127	0.00000
0.71889	2.63679	0.00000
0.73000	2.63255	0.00000
0.74111	2.62854	0.00000
0.75222	2.62474	0.00000
0.76333	2.62114	0.00000
0.77444	2.61772	0.00000
0.78556	2.61446	0.00000
0.79667	2.61137	0.00000
0.80778	2.60842	0.00000
0.81889	2.60562	0.00000
0.83000	2.60294	0.00000
0.84111	2.60038	0.00000
0.85222	2.59794	0.00000
0.86333	2.59560	0.00000
0.87444	2.59337	0.00000
0.88556	2.59123	0.00000
0.89667	2.58918	0.00000
0.90778	2.58721	0.00000
0.91889	2.58532	0.00000
0.93000	2.58351	0.00000
0.94111	2.58177	0.00000
0.95222	2.58010	0.00000
0.96333	2.57849	0.00000
0.97444	2.57694	0.00000
0.98556	2.57545	0.00000
0.99667	2.57402	0.00000
1.00778	2.57263	0.00000
1.01889	2.57130	0.00000
1.03000	2.57001	0.00000
1.04111	2.56877	0.00000
1.05222	2.56757	0.00000
1.06333	2.56641	0.00000
1.07444	2.56529	0.00000
1.08556	2.56421	0.00000
1.09667	2.56316	0.00000
1.10778	2.56215	0.00000
1.11889	2.56117	0.00000
1.13000	2.56022	0.00000
1.14111	2.55930	0.00000
1.15222	2.55841	0.00000
1.16333	2.55754	0.00000
1.17444	2.55671	0.00000
1.18556	2.55589	0.00000
1.19667	2.55510	0.00000
1.20778	2.55434	0.00000
1.21889	2.55360	0.00000
1.23000	2.55287	0.00000
1.24111	2.55217	0.00000
1.25222	2.55149	0.00000
1.26333	2.55083	0.00000
1.27444	2.55018	0.00000
1.28556	2.54956	0.00000
1.29667	2.54895	0.00000
1.30778	2.54836	0.00000
1.31889	2.54778	0.00000
1.33000	2.54722	0.00000
1.34111	2.54667	0.00000
1.35222	2.54614	0.00000
1.36333	2.54562	0.00000
1.37444	2.54511	0.00000
1.38556	2.54462	0.00000
1.39667	2.54413	0.00000
1.40778	2.54367	0.00000
1.41889	2.54321	0.00000
1.43000	2.54276	0.00000
1.44111	2.54232	0.00000
1.45222	2.54190	0.00000
1.46333	2.54148	0.00000
1.47444	2.54108	0.00000
1.48556	2.54068	0.00000
1.49667	2.54029	0.00000
1.50778	2.53992	0.00000
1.51889	2.53955	0.00000
1.53000	2.53919	0.00000
